$
$
$ $ Created by MSC Apex Version 2024.1 on Jan 31, 2025 at 19:41:51
$
$ Values exported in this file are expressed using the consistent SI_K unit
$ system
$   Length m
$   Mass kg
$   Time s
$   Force N
$   Temperature K
$ NOTE: Nastran requires the following angle values always be defined in
$ degrees, while all other rotational quantities will be defined in terms of
$ radians
$ PCOMPG  (THETAi - ply orientation angle)
$ TABLED1 (yi - phase angle data when referenced in TP field of RLOAD2)
$
SOL 101
CEND
BEGIN BULK
$
$ Parts & Assemblies contained in Assembly tower
$
$
$ Part Part_1
$
$       2       3       4       5       6       7       8       9       0
$
$
CQUAD4  1       1       41      80      90      81
CQUAD4  2       1       81      90      91      82
CQUAD4  3       1       82      91      92      83
CQUAD4  4       1       83      92      93      84
CQUAD4  5       1       84      93      94      85
CQUAD4  6       1       85      94      95      86
CQUAD4  7       1       86      95      96      87
CQUAD4  8       1       87      96      97      88
CQUAD4  9       1       88      97      98      89
CQUAD4  10      1       89      98      40      1
CQUAD4  11      1       80      79      99      90
CQUAD4  12      1       90      99      100     91
CQUAD4  13      1       91      100     101     92
CQUAD4  14      1       92      101     102     93
CQUAD4  15      1       93      102     103     94
CQUAD4  16      1       94      103     104     95
CQUAD4  17      1       95      104     105     96
CQUAD4  18      1       96      105     106     97
CQUAD4  19      1       97      106     107     98
CQUAD4  20      1       98      107     39      40
$ ... 380 like lines cut
GRID    1               -4.585230.      0.
GRID    2               -4.52878-.7172880.
GRID    3               -4.36081-1.416910.
GRID    4               -4.08547-2.081650.
GRID    5               -3.70953-2.695130.
GRID    6               -3.24225-3.242250.
GRID    7               -2.69513-3.709530.
GRID    8               -2.08165-4.085470.
GRID    9               -1.41691-4.360810.
GRID    10              -.717288-4.528780.
GRID    11              8.987-15-4.585230.
GRID    12              .717288 -4.528780.
GRID    13              1.416914-4.360810.
GRID    14              2.081651-4.085470.
GRID    15              2.695131-3.709530.
GRID    16              3.242247-3.242250.
GRID    17              3.709529-2.695130.
GRID    18              4.08547 -2.081650.
GRID    19              4.360813-1.416910.
GRID    20              4.528778-.7172880.
$ ... 420 like lines cut
$ Material Record: tower
$
MAT1    1       2.+11   .3                                      .02
$ Elements and Element Properties for: <Unicode_Characters_removed_to_
$
PSHELL  1       1       .082954 1               1
$
$       2       3       4       5       6       7       8       9       0
$
$
$ Single-Point Constraint, Alternate Form: <Unicode Characters removed to
$ ensure compatibility with Nastran>
SPC1    1       123456  41      42      43      44      45      46      +
+       47      48      49      50      51      52      53      54      +
+       55      56      57      58      59      60      61      62      +
+       63      64      65      66      67      68      69      70      +
+       71      72      73      74      75      76      77      78      +
+       79      80
$ Single-Point Constraint, Alternate Form: <Unicode Characters removed to
$ ensure compatibility with Nastran>
SPC1    2       123456  1       2       3       4       5       6       +
+       7       8       9       10      11      12      13      14      +
+       15      16      17      18      19      20      21      22      +
+       23      24      25      26      27      28      29      30      +
+       31      32      33      34      35      36      37      38      +
+       39      40
$
$       2       3       4       5       6       7       8       9       0
$
$
BCPARA  0       METHOD  SEGTOSEGNLGLUE  0
ENDDATA
